46
Ph3P=CHâ€”C(OEt)=O 
  C   -1.91380175698266     -0.38346849385339     -1.21543707373055
  C   -3.27340957403752     -0.61904393199122     -1.37992763238908
  C   -3.49844931705702     -0.99449645603905      0.98450445389064
  C   -1.34300346694462     -0.45792180318110      0.05077755605783
  C   -4.06524277348617     -0.92485610933449     -0.28283252866751
  C   -2.14259187852725     -0.75997928565050      1.15235442497988
  C   1.76057259324497      0.65020088187586     -3.43543832609340
  C   0.74999025182182      0.56360584658574      1.85042410780459
  C   1.24732560281945      2.06643474972127     -1.09608078255715
  C   1.70688320305730      2.72947604947734     -2.22576603847291
  P   0.42523069631130     -0.15790542230390      0.35357956395068
  H   -5.12551026738463     -1.10017091600444     -0.41231107257575
  C   1.25793625376167     -1.76292275511902      0.31234358344170
  C   1.03214689873422      0.69192962014304     -1.13763066935714
  C   0.55782626214251     -2.95630718304349      0.16942010331890
  C   1.24255217477510     -4.16557836594889      0.16304092658846
  C   2.64726363607097     -1.78534587450506      0.44282644643892
  C   3.32468209497656     -2.99361553737607      0.44019911300182
  C   1.29904155473926     -0.01559218932413     -2.30940451158798
  C   1.96098538872544      2.02413893785562     -3.39408014738214
  C   2.62215973377758     -4.18511886878403      0.29986454964052
  O   -0.09306472605577      2.08524421500408      3.46747756095598
  C   -0.04143394933239      1.64170835585686      2.34173801434646
  O   -0.84149555207500      2.15794973651130      1.34210972441517
  C   -1.89999689380688      3.01535287289251      1.75151395725270
  C   -2.84771267417802      3.13628807140407      0.57920481437696
  H   -4.11530655777516     -1.22066995960575      1.84444386370143
  H   -2.39118720220600      2.58563234368195      2.62635622190242
  H   -1.49153334387172      3.98342277298373      2.04925893962440
  H   -1.30913699402450     -0.12211925993808     -2.07388311505548
  H   -1.69695164128544     -0.78601289216162      2.14020922084868
  H   0.69381991296675     -5.09172019138819      0.05261665046778
  H   1.97168519838431      0.09637529504326     -4.34096901442914
  H   2.32480821846424      2.54324673274989     -4.27152515567416
  H   3.19430499446777     -0.85516007355750      0.54451354010946
  H   -3.24039160915786      2.15396958458683      0.30872688990147
  H   -0.51983219411033     -2.94488464397967      0.06494265973336
  H   1.05700685191011      2.60616899056800     -0.17727527858428
  H   1.15682870135485     -1.09027734543051     -2.33921785937135
  H   4.40157055727038     -3.00694698438539      0.54548178164099
  H   3.15321658531444     -5.12822529935053      0.29597275041300
  H   -3.71363674430745     -0.55276287229949     -2.36635337387443
  H   1.44753540004417      0.07777240280540      2.51272723837995
  H   -3.68309741129623      3.79003015523193      0.83167931779166
  H   -2.33396746241327      3.54966958573970     -0.28953689073651
  H   1.87307771751970      3.79828434004520     -2.19039221689608
