60
Ph3P=C(I+Ph)â€”C(Ph)=O 
  C   -2.87960859668792     -1.94254681904579      0.57525858749658
  C   -3.83023868845370     -2.80329912650191      1.10453486932339
  C   -2.40225941313821     -4.68560718133985      0.63727865806870
  C   -1.68289122892437     -2.45607139326238      0.07972736146010
  C   -3.59270393378139     -4.17032907089189      1.13549723360719
  C   -1.44556733627430     -3.83263359493245      0.11098489337987
  C   -1.15258631216334     -2.53137583630807     -4.45822863722419
  C   -0.56284171368780      0.32519489733603     -0.11242407282080
  C   0.00793597540773     -0.35734986920226     -3.16962601785496
  C   -0.01460679065855     -0.41246783365161     -4.55317128739051
  P   -0.45508939235306     -1.34975537408722     -0.63359162826213
  H   0.53501704032567     -2.56954613509351      1.83493367957727
  C   1.15880836298826     -2.01499733426860     -0.15404023882574
  C   -0.54731127935023     -1.39954592448082     -2.42850967631225
  C   1.35818792500605     -2.52279760384502      1.13209901210391
  C   2.60761196628377     -2.99117182860011      1.50861060862629
  C   2.21712512252218     -1.99770731471778     -1.06096149310568
  C   3.46523653259350     -2.47329595565960     -0.68019296320391
  C   -1.13493999422547     -2.48438612213283     -3.07132457372915
  C   -0.59209219024782     -1.50015120875389     -5.19719111538493
  C   3.66208721027362     -2.96556026431944      0.60242155035689
  O   -2.47690908631196      0.57055469129500     -1.38787405819460
  C   -1.68061980694359      1.10323713952917     -0.63067565458419
  C   -1.79951556558989      2.55927744207928     -0.31357631127288
  C   -3.05923810124864      3.08226427470205     -0.04157775197993
  C   -3.20477204438697      4.43646361928937      0.21948814327302
  C   -2.09848953467496      5.27565983100749      0.17920593402928
  C   -0.69321158850305      3.40310913763545     -0.36426144822452
  C   -0.84460576265986      4.76129396054593     -0.12675287274421
  I   0.23748024394411      0.83165859913241      1.70661282732450
  C   2.13603905533442      1.65846226136901      1.27355116867581
  C   2.29404360853722      3.03487349741388      1.33729022072243
  C   4.61603248762224      2.72253997614168      0.78436354626490
  C   3.55393302254894      3.56373073533805      1.08926857505207
  C   3.18425778952871      0.79756087138324      0.98756421863527
  C   4.43385526651744      1.34645262733063      0.73394396897497
  H   -3.07633056857736     -0.87981222506877      0.52777538150921
  H   -4.76039781184668     -2.40505378583104      1.48693936812584
  H   -2.21712335267736     -5.75110596751055      0.66258588913114
  H   -4.33721488490491     -4.83805545610684      1.54883141940216
  H   0.01050509159333      5.42196004454510     -0.19462204282016
  H   -0.61418231120573     -1.53714766637791     -6.27834734256706
  H   3.03983356166194     -0.27475924608938      0.96717997166718
  H   5.26570087730995      0.69300611760235      0.50624926680525
  H   5.59436858781894      3.14245008669160      0.59171370755914
  H   3.70177476214787      4.63442901756681      1.13550405711978
  H   0.44029038792246      0.49815101092042     -2.66427396844089
  H   2.75553676829939     -3.38768325410247      2.50428051890737
  H   2.06856935471177     -1.62729751307551     -2.06688506188452
  H   4.27996205907580     -2.46705135204096     -1.39203808519189
  H   0.27809298867086      3.00104179365028     -0.63026114112934
  H   -1.61457425610945     -3.37138858493740     -4.95916677356001
  H   1.45949526489324      3.68400918960271      1.56962867439700
  H   0.40732098762111      0.39939771393691     -5.13019564062798
  H   4.63344195503747     -3.34249706534685      0.89501015900948
  H   -3.91697063225562      2.42169172999972     -0.04670757085818
  H   -4.18315983104666      4.84104600807729      0.44197038649555
  H   -2.21628050157880      6.33422206188076      0.36995603011754
  H   -1.59449296157395     -3.28126496500680     -2.50159259970250
  H   -0.51441367290816     -4.23740235059649     -0.26797722539017
  
