25

C      1.352300   -0.005700    0.710000
C      1.566700   -1.355800   -0.019000
C      1.551800    1.194500   -0.247800
C     -1.068100   -0.058700    0.221200
C      0.284800    2.021700   -0.468000
C     -0.912800   -1.399800   -0.538400
C     -0.945700    1.151800   -0.735400
C      0.303100   -2.213400   -0.094100
C     -0.038300    0.045000    1.352000
H      2.109200    0.068900    1.501200
H      1.951000   -1.206400   -1.035100
H      2.341300   -1.926600    0.506400
H      2.323300    1.855400    0.169200
H      1.938100    0.873400   -1.221800
H     -2.075400   -0.038600    0.657900
H      0.101200    2.643700    0.417800
H      0.434300    2.723000   -1.297500
H     -1.812800   -2.006800   -0.379600
H     -0.852000   -1.243500   -1.621200
H     -0.935300    0.836700   -1.783900
H     -1.838500    1.782000   -0.627900
H      0.461400   -3.055800   -0.778100
H      0.105200   -2.659500    0.888200
H     -0.166800   -0.767200    2.077500
H     -0.174500    0.970800    1.924400

