53
O[Z]P(Ph)=C(I+Ph)â€”C(OEt)=O
  C   -3.06483574257916     -0.96847146266258     -0.29408943285336
  C   -4.02682344267587     -1.46520372124372      0.56057981906326
  C   -2.30558528398120     -2.38913701531327      1.97617082956222
  C   -1.70475289566982     -1.17094192965856     -0.02300691108137
  C   -3.64064286353356     -2.17010719281291      1.70026414515665
  C   -1.33530575859608     -1.89488489365283      1.11060453895298
  C   -1.55147899066450     -2.12873172860043     -4.53891438159141
  C   -0.09090226554337      1.22171024961370     -0.64471866856379
  C   -0.64810554837868      0.36518600474965     -3.68369540449824
  C   -0.91526864352691      0.14551795402342     -5.02695187237999
  P   -0.43744198040070     -0.44559044996598     -1.04220139524906
  O   -0.04671664851104     -2.16897579528756      1.47274322495107
  C   0.97786067374123     -1.42722502511438     -0.60803415236439
  C   -0.83260398399272     -0.66946962068170     -2.77268259065257
  C   0.99918491142720     -2.10464430294803      0.60866029582646
  C   2.15411836448953     -2.77203936253151      1.01421460579295
  C   2.10728496304412     -1.45717165992988     -1.43570648951788
  C   3.24594216625913     -2.12498446249043     -1.04069372748646
  C   -1.28655137657829     -1.91886784282891     -3.19604615302068
  C   -1.36488858763776     -1.09702372975289     -5.45188004797400
  C   3.26521442495399     -2.77382061660617      0.19609222813464
  O   -2.21777522699109      1.83044856246034     -1.34268904350208
  C   -1.20354470980596      2.13898013166547     -0.75075767466074
  O   -1.02441539912657      3.33039385395903     -0.16971656887934
  C   -2.10700375518106      4.25708493453982     -0.32312351290797
  I   1.51347097384020      1.69388104615508      0.49995670363203
  C   -0.77823932119221      0.28842526550837      3.90418495233313
  C   1.48792239947548     -0.43990554025473      4.28968273533975
  C   0.15714206546532     -0.38210090073870      4.68181068491758
  C   0.94043027282997      0.82690134736021      2.35421941014675
  C   1.89513397983877      0.16767821690510      3.10855974525450
  C   -0.38907932634727      0.91049110571347      2.72513641051335
  H   -3.34425618281739     -0.40429032279249     -1.17443323373804
  H   -5.07437768587152     -1.30555582270588      0.34689009682838
  H   -1.98584345064421     -2.94842941519527      2.84503282586382
  H   -4.39240446883037     -2.56281020837911      2.37234830202961
  H   -1.90485812978055     -3.09456041615223     -4.87381899263636
  H   -0.31128825650293      1.33454832548279     -3.34059146588990
  H   -0.77982113209160      0.94726437530787     -5.74018319961453
  H   2.14299803011728     -3.29088930147172      1.96335654018451
  H   2.07163142493874     -0.94722542788197     -2.39207340758741
  H   4.11433864846241     -2.14992924697115     -1.68385178089409
  H   -1.43414108235564     -2.72007742168792     -2.48099526014791
  H   -1.57563411370237     -1.26320816393916     -6.50018595992264
  H   4.15520570635473     -3.30209992691667      0.51216355866750
  H   -1.79797123381409      5.15695452295131      0.19854084294890
  H   -2.27706033736005      4.46197410617591     -1.37816757933572
  H   -3.01589324844110      3.84885296578200      0.11438053680060
  H   -1.81421322175723      0.33501856825867      4.21299022816996
  H   2.21404183860854     -0.96283930068242      4.89786372729726
  H   -0.15248635507688     -0.86111590918938      5.60110937230724
  H   2.92683778608695      0.10431779130571      2.78673462886540
  H   -1.11138310731779      1.43038685087207      2.10690203615486

