59
O[Z]P(Ph)=C(I+Ph)â€”C(Ph)=O
  C   -2.95411704032168     -2.31469790358778     -0.40897136824391
  C   -3.84338920394252     -3.10212167979973      0.29169321171365
  C   -2.06668292822150     -3.83033485893423      1.75274366604153
  C   -1.60257923630149     -2.27466162827465     -0.03873327020643
  C   -3.39530677419138     -3.85320701373463      1.37803018253066
  C   -1.16682466542182     -3.04587495738889      1.03923537138239
  C   -0.96593096919336     -2.56083073231419     -4.58904184869152
  C   -0.50419932477542      0.49385713435271     -0.26728421757279
  C   -0.37273602374182     -0.11413791762926     -3.39673324788936
  C   -0.42494872467835     -0.22024949319694     -4.77767934439036
  P   -0.45709779342299     -1.16741370384648     -0.83246065204368
  O   0.12678244167469     -3.09575933547104      1.48681537275004
  C   1.10688034625828     -1.89913877056214     -0.38775701938677
  C   -0.61718450556487     -1.23943263532234     -2.61464283275227
  C   1.18922441335114     -2.74654085662034      0.71460990560227
  C   2.41740794901909     -3.28565329510927      1.09468239758532
  C   2.25630744667679     -1.64489973497679     -1.14571052269148
  C   3.46686932839479     -2.20302175718171     -0.79140373618495
  C   -0.91223013585846     -2.46560714414420     -3.20723812070754
  C   -0.72199452045376     -1.43992197852576     -5.37176557259369
  C   3.54311281524384     -3.01447098343533      0.34181566688006
  O   -2.54704394927094      0.68488700827200     -1.32437084218185
  C   -1.69099470588277      1.24506894203231     -0.65359227564597
  C   -1.81406709237413      2.69137224142647     -0.31050263894836
  C   -3.07127066223330      3.20374688579948     -0.00661169377918
  C   -3.21621625596116      4.55188433158313      0.28280452430979
  C   -2.11257825624572      5.39499620599453      0.24262767767590
  C   -0.71012672340346      3.53943829004955     -0.36027841080557
  C   -0.86142453411355      4.89166616297857     -0.09182030078739
  I   0.28088259467098      0.83193713046738      1.60112743589807
  C   2.21522535223710      1.61866283224792      1.28114042375722
  C   2.39465157891779      2.99377200622882      1.24569500215771
  C   4.74949893532648      2.60551507834829      0.92953799685251
  C   3.68123087338122      3.48303735105729      1.06500208075704
  C   3.26836464288355      0.72403088671499      1.16821880523597
  C   4.54680138070760      1.23279186192037      0.98461015278166
  H   -3.28574085154645     -1.70593928159802     -1.24051828435225
  H   -4.88454835798478     -3.13049271860124      0.00226263842090
  H   -1.69769127429381     -4.41879032199449      2.58165168453997
  H   -4.09088326411871     -4.46979453766930      1.93187834542865
  H   -0.00997599654541      5.55714148019235     -0.15771383172472
  H   -0.76761025359808     -1.51652584616190     -6.45014724248634
  H   3.10240146201402     -0.34427876331591      1.22331553770320
  H   5.38319942022857      0.55258839186060      0.89201396364370
  H   5.74894858781182      2.99569005804428      0.78993872680425
  H   3.84657678657001      4.55174223743957      1.03536379590883
  H   -0.15365272004331      0.83747421063023     -2.92913010377190
  H   2.45282935223133     -3.93422141626792      1.95943852424298
  H   2.18131521108791     -1.00830701216824     -2.01973937972144
  H   4.34827919754527     -2.01300702583549     -1.38805709690929
  H   0.25633715645967      3.14402007681814     -0.65244428227985
  H   -1.20014462527843     -3.50919355223788     -5.05345039726092
  H   1.55851437680407      3.67121726689117      1.36084905892225
  H   -0.24292602321859      0.65233774039023     -5.39034277124691
  H   4.48929158328732     -3.45504773955557      0.62789176540201
  H   -3.92446278935032      2.53759811841894     -0.00577458803393
  H   -4.19167617528965      4.94915398782785      0.52979165878503
  H   -2.23043373574405      6.44906148355011      0.45700953120175
  H   -1.10377023253031     -3.33948023934897     -2.59592610794036
  
