59
O[Z]P(Ph)=C(I+Ph)â€”C(Ph)=O
  C   -1.78566771683692     -1.66165671245731      0.96618376718012
  C   -2.16994594929570     -2.80340674069516      1.63823878819737
  C   -0.00344864084997     -3.77735825662061      1.21433307479300
  C   -0.50961966788233     -1.56142079575530      0.39979518716552
  C   -1.27243575799812     -3.86641098537755      1.74970724250724
  C   0.38565375143104     -2.61791212086936      0.54869646418835
  C   -2.51116005564485     -0.41792047410265     -3.69429466859725
  C   -0.59501969010653      1.34465771270029      0.23301321077785
  C   0.23485858912246     -0.21331130189872     -3.27020548202486
  C   -0.26606795775696     -0.28895826813932     -4.56289613321441
  P   -0.03123358883793     -0.10685656680673     -0.51285356988383
  O   1.66917170737238     -2.61361967216795      0.09652085848241
  C   1.74013236283407     -0.25292209285683     -0.51091743816802
  C   -0.64578700112643     -0.23501206200852     -2.19328262275337
  C   2.34249997948176     -1.47643739344107     -0.22816573127725
  C   3.72985394886922     -1.59927698915120     -0.27277843472149
  C   2.54277199808326      0.85627036519777     -0.80087161093193
  C   3.91567904045469      0.73802673812476     -0.84378125865587
  C   -2.02059317516222     -0.34906491522574     -2.40336693427915
  C   -1.63337490478590     -0.38404198835078     -4.77333946732169
  C   4.50427113845489     -0.50122813432543     -0.58584893906294
  O   -2.11434512826372      2.87888613345505      0.93431505197126
  C   -1.60196149854545      2.30413165316626     -0.04898096213800
  C   -2.04430992918672      2.65228723175318     -1.42052940473713
  C   -3.40491078142761      2.85600222733745     -1.63775646336870
  C   -3.86144507821029      3.16483334808471     -2.90930937195975
  C   -2.95922947610575      3.29998940238970     -3.95738461071239
  C   -1.14068378951703      2.80583095620906     -2.46754126020639
  C   -1.59807905433515      3.13320913951927     -3.73402674573131
  I   -0.51185351055456      1.60064259891031      2.33871909315785
  C   1.14326769126990      0.35119506519741      2.75610170542935
  C   2.42534158363859      0.86003862616169      2.58363720952323
  C   3.31752277320386     -1.23971439226457      3.34526470103521
  C   3.51499683998676      0.05206159968109      2.87136748013856
  C   0.93298735130007     -0.93296486359878      3.23988351766845
  C   2.03258436795412     -1.73007785836042      3.53242422163128
  H   -2.46957127964550     -0.82447852314154      0.87817792951671
  H   -3.15835835167064     -2.87509723015096      2.07012423887798
  H   0.71225554422344     -4.58294655883156      1.30833023393248
  H   -1.56706049496094     -4.76861649864921      2.26940751934715
  H   -0.89396796779722      3.26349401941205     -4.54519757440495
  H   -2.02058189150704     -0.43698340505876     -5.78247060502398
  H   -0.07074744122148     -1.32063822434898      3.36933871736185
  H   1.87937213975815     -2.73323899366436      3.90821343741876
  H   4.17067271540137     -1.86442643676029      3.57553873042393
  H   4.51718739547701      0.43550022823503      2.73266293117987
  H   1.30249540714734     -0.13649143629419     -3.10798260672173
  H   4.16962284042015     -2.56224257122626     -0.05090509499028
  H   2.06587157276231      1.81255443490924     -0.98520887647340
  H   4.53003739990180      1.59666096448131     -1.07661848493631
  H   -0.07983145863647      2.68618334337580     -2.28622730199367
  H   -3.57708281850181     -0.49421600543915     -3.86128425868110
  H   2.57599204634613      1.86828904865180      2.21948938089297
  H   0.41464018871338     -0.27396274470007     -5.40341523247304
  H   5.58097398599968     -0.60435549922644     -0.62023399759589
  H   -4.09135919795617      2.76872549050968     -0.80544028007643
  H   -4.91926906225461      3.31288181326181     -3.08141627253286
  H   -3.31616211515722      3.55192632637683     -4.94751878783686
  H   -2.70707702020181     -0.36537718840909     -1.56548110562801

