27
Coordinates from ORCA-job N2CN2-bc
  C   -0.62726412597350     -1.51762451496621     -0.00000000144766
  N   -0.25902610574917     -0.77719434677678      1.20478350941597
  C   -0.95768825422971      0.52078731011757      1.20948802995529
  C   1.18011513215008     -0.60155722198446      1.19172181795822
  C   -0.95768731918066      0.52078740524284     -1.20948788475468
  C   1.18011516738029     -0.60155852279355     -1.19172193150088
  N   1.63597863245854      0.10972081801824     -0.00000038449388
  C   3.07701839275582      0.25337085372565     -0.00000053161308
  N   -0.25902629983954     -0.77719473383280     -1.20478382962775
  N   -1.74982964398403      0.68589629164513     -0.00000011660145
  C   -2.43337324962222      1.96121766594210      0.00000005110044
  H   -0.08557869178199     -2.46348971973325      0.00000011767496
  H   -1.69366779168789     -1.71454164548982      0.00000010330394
  H   -1.64983578917827      0.57200700788128      2.05331390759623
  H   -0.21423804496712      1.32648622298874      1.31844288286342
  H   1.49154162873985     -0.03270929145698      2.06948156941532
  H   1.63700057330927     -1.60340240088135      1.25515974862506
  H   -1.64983392216363      0.57200834462935     -2.05331449930089
  H   -0.21423631426392      1.32648569211570     -1.31844078878481
  H   1.49154225854383     -0.03271156238141     -2.06948195151831
  H   1.63700013776315     -1.60340402006291     -1.25515876301523
  H   3.39053688019007      0.80873780097391     -0.88311464119695
  H   3.39053704952632      0.80873485476119      0.88311533475556
  H   3.60006724328057     -0.71565203200118     -0.00000217258837
  H   -3.06592185121980      2.03601012831189      0.88341034316675
  H   -1.73751757340335      2.81405776044398      0.00000017394449
  H   -3.06592200412618      2.03601038353646     -0.88341009333171
