27
Coordinates from ORCA-job N2CN2-cc
  H   -2.84565661907974     -0.88259571725392     -1.90558799040278
  N   0.00000030660572      1.19887615598221      0.91116651585306
  C   -1.22143713003283      1.20320151790054      0.12713845230949
  C   1.22143843422866      1.20320192127603      0.12714036187425
  C   -1.22143898958833     -1.20320253831449      0.12714183783127
  C   1.22143679555266     -1.20320310779774      0.12713917362839
  N   1.41036974061819      0.00000019653388     -0.68003019871986
  C   2.72692335589740      0.00000184966440     -1.27798837953563
  N   -0.00000033519636     -1.19887733925861      0.91116832895254
  N   -1.41036984597612     -0.00000162170774     -0.68003042049271
  C   -2.72692304015395     -0.00000103854454     -1.27798915623851
  C   0.00000042909040     -0.00000008218975      1.73725309006624
  H   -3.53585284108995      0.00000128945004     -0.52777310562911
  H   -0.88938917443803      0.00000055994426      2.36839684889103
  H   -2.05292985013518      1.32750348392883      0.84455294057542
  H   -1.22148335631419      2.06515554818787     -0.54261199604746
  H   1.22148682375511      2.06515680982152     -0.54260906979163
  H   2.05293021003463      1.32750123598240      0.84455592665118
  H   -1.22148777721447     -2.06515848753301     -0.54260651748630
  H   -2.05293132565501     -1.32750065251083      0.84455732156381
  H   1.22148260622270     -2.06515734387497     -0.54261117467720
  H   2.05293004293405     -1.32750414934993      0.84455232593459
  H   2.84565572235999     -0.88258999941942     -1.90559093332304
  H   2.84565569197043      0.88259875179591     -1.90558468661355
  H   3.53585282172715     -0.00000066321570     -0.52777227222026
  H   -2.84565374302218      0.88259286049095     -1.90558953098905
  H   0.88939104689924      0.00000056001187      2.36839598609101
