45
Coordinates from ORCA-job Ru-M-Toluene
  Ru  0.90266752523983      1.50931947523288     -0.23760103670393
  O   -0.47782285307289      0.19195450814844     -0.95034006180731
  O   -0.12724351881885      0.96930319946678      1.49161146033171
  O   -2.98864647152449     -2.47955084099860      2.88253475511147
  H   3.18587315473789      2.98486540557420      0.98001110597462
  N   1.80711549284224     -0.41751050959429      0.07551890293281
  N   0.85308713101348     -1.34215849738460      0.12038373097999
  C   1.66264446645413      2.42372069877939     -2.05362948279747
  C   1.35901895959208     -2.55302193010736      0.37457423573697
  C   -0.55631208267886     -0.78127264409900     -0.00742280376619
  C   -0.79439374528104     -0.13414334512339      1.36125362551727
  C   -1.58199091894889     -0.69888912425768      2.31618489359703
  C   -2.31465108216682     -1.91472204470030      2.03447113399324
  C   -2.27961078225369     -2.47460652634159      0.63661447413242
  C   -3.09767376980673     -3.55640855206520      0.32134088749974
  H   -3.71656949318605     -3.97064205914031      1.10643509471567
  C   -3.11107100943418     -4.06852093668758     -0.96527889061406
  H   -3.75075536763844     -4.90786873990365     -1.20669427587314
  C   -2.30832886004400     -3.50170443313973     -1.95134421657277
  H   -2.32499310307386     -3.89817604071426     -2.95858241742194
  C   -1.48915132072182     -2.42702442474731     -1.64343860858742
  H   -0.86041634290990     -1.96686151972456     -2.39526302108269
  C   -1.47623848034859     -1.91806469052465     -0.35070076836404
  C   -1.74126854180562     -0.09376204903081      3.67713089269777
  H   -2.78639993501129      0.15487051696621      3.87155839536466
  H   -1.13640037735076      0.80621838502823      3.76390043400322
  H   -1.44285333567236     -0.80525297707646      4.44919780372607
  C   -0.74919241354303      2.73571253708164     -2.74295188509755
  H   -1.71723595224413      2.86174115284168     -2.26327291992110
  H   -0.65616390501432      3.46227726020267     -3.55223874306686
  H   3.88658111398633     -0.48977513381806      0.29752401310759
  H   -0.88153585851104      3.80665581155980     -0.22391136754405
  C   2.96087035571486     -1.04123508935268      0.28843255789406
  H   0.90278456346023      3.82410564762512      1.50199418101022
  C   2.66617813584422      2.45157979741027     -1.06546443889810
  C   2.43235195068590      3.03021771837224      0.20856231023011
  H   3.45723849172299     -3.17647239215033      0.67139014728865
  H   3.60725602279336      1.95427010215724     -1.25863683581758
  H   1.83979108796096      1.91769067628023     -2.99184036637438
  C   0.12014609338208      3.50148980241776     -0.48922824890974
  H   0.71714446716540     -3.41490267680755      0.44838886200702
  C   2.73148246794820     -2.40569749395553      0.48384543853370
  C   0.36254567056037      2.92640346436146     -1.75845897092725
  C   1.14677736538576      3.52146914422723      0.49309508459095
  H   -0.70756695974023      1.73024492579375     -3.15988990386869
