51
Coordinates from ORCA-job Ru-M-Cumene
  Ru  1.04845053883572      1.31378789851940     -0.07450803382949
  O   -0.35876004344999      0.02156836686316     -0.79017534584061
  O   0.01129546700359      0.77811891944068      1.65472900177682
  O   -2.91982867293222     -2.62075486801490      3.02408375066948
  H   3.57971213583699      2.56785128491647      0.85803572495234
  N   1.92222195774579     -0.63012915344004      0.21841353137877
  N   0.95301518419933     -1.53889040461333      0.26640503446130
  C   1.59225554756528      2.28625368984685     -1.92895738909664
  C   1.44050900465814     -2.75878792123310      0.51389657243795
  C   -0.44779268981391     -0.95676877828150      0.14692761862154
  C   -0.67542201151361     -0.31238292430401      1.51877988990873
  C   -1.47883846635354     -0.86441788462172      2.46832977228133
  C   -2.23183170200422     -2.06634593699320      2.18037933314022
  C   -2.20169183304577     -2.62274883325203      0.78100035296668
  C   -3.03754328171110     -3.68897570027803      0.45932328724433
  H   -3.66558914289607     -4.09550129118776      1.24116240648468
  C   -3.05653083060639     -4.19559191101888     -0.82941545220072
  H   -3.70988258732170     -5.02291910308654     -1.07561355057804
  C   -2.24203243297428     -3.63848684789660     -1.81138276282127
  H   -2.26325938171756     -4.03010564195358     -2.82042659370870
  C   -1.40507122052369     -2.57954905080382     -1.49710345373572
  H   -0.76714078095066     -2.12651032311916     -2.24551645252165
  C   -1.38597326694363     -2.07676295153647     -0.20200171442096
  C   -1.63374084431033     -0.25938693261069      3.82983547629756
  H   -2.67714117680176     -0.00384224886089      4.02434654592740
  H   -1.02231812913910      0.63607341420166      3.91742043329682
  H   -1.34021230913739     -0.97317265460402      4.60172446376636
  C   -0.86766172384661      2.77897059072351     -2.26412120010423
  C   -2.15352675249146      2.77077966735383     -1.44695920145717
  C   -0.84958566616754      3.92890968417391     -3.27495505273731
  H   4.00116327920715     -0.73699950594028      0.42637734693643
  H   -0.54620875453530      3.69721875386837      0.34244840613685
  C   3.06656003659776     -1.27347034330451      0.42241782461357
  H   1.47714897804166      3.53764435562554      1.75632153994749
  C   2.73331888882956      2.19732236057492     -1.11701429849927
  C   2.72574320577597      2.70759089799270      0.21216992034055
  H   3.52989376031848     -3.41774037379197      0.79592036811602
  H   3.59847979209544      1.65766898696512     -1.47737720902515
  H   1.58700243892976      1.81931594790437     -2.90431947524198
  C   0.37723517967051      3.36033345847201     -0.10341339652699
  H   0.78527861214214     -3.61043790641245      0.58849152571860
  C   2.81581264196651     -2.63457354810287      0.61521468676950
  C   0.37959501231435      2.84832062018883     -1.41642988377035
  C   1.54331098904580      3.26870180679775      0.71145447980553
  H   -3.00023683857617      2.57601499859668     -2.10513466649019
  H   -2.12296384566423      1.98842025398485     -0.68776968801206
  H   -2.33019748083283      3.73686640742262     -0.96869722221355
  H   -1.71585920446959      3.86321152306231     -3.93382024900127
  H   -0.88896396837556      4.89036660015586     -2.75830321100678
  H   0.05040177589900      3.91176119794526     -3.89156517436194
  H   -0.81066225844604      1.82837174877615     -2.80145668094489
