45
ZCN no name and spacebars Dolbo Dolphin
  S     -0.048109    2.878811   -1.089947
  N      1.216383    1.931335   -0.715415
  N     -1.280153    1.887437   -0.721101
  C     -1.463422   -0.414977    0.139505
  C     -0.683529   -1.479960    0.534448
  C     -0.738538    0.750277   -0.276157
  C      0.712827    0.775673   -0.273442
  C      5.095180    0.688122    0.569827
  C      5.737095   -0.506091    0.249321
  C      0.733512   -1.455840    0.535426
  C     -4.963323   -1.815116   -0.127543
  C      2.951830   -0.385645    0.156025
  C      1.476611   -0.363704    0.143750
  C     -3.725894    0.614427    0.505718
  C     -5.716847   -0.702544    0.240548
  C     -5.113118    0.519051    0.557641
  C      5.018434   -1.646032   -0.127231
  C     -3.572879   -1.692855   -0.170658
  C     -2.937145   -0.489196    0.148913
  C      3.630387   -1.570560   -0.169407
  C      3.699855    0.737802    0.516985
  C     -5.623467   -3.119033   -0.482726
  C      5.738942   -2.915681   -0.487839
  C      5.879065    1.909227    0.965873
  C     -5.954043    1.702192    0.950674
  H     -1.176029   -2.377063    0.898086
  H      6.824283   -0.551035    0.284770
  H      1.255746   -2.336088    0.898787
  H     -3.245301    1.556646    0.745757
  H     -6.801977   -0.784228    0.274676
  H     -2.974883   -2.543887   -0.488308
  H      3.060805   -2.439143   -0.490644
  H      3.188471    1.662634    0.762556
  H     -6.712307   -3.044077   -0.421853
  H     -5.365649   -3.430818   -1.500819
  H     -5.305860   -3.923173    0.190243
  H      5.038426   -3.708686   -0.762546
  H      6.417605   -2.761204   -1.333873
  H      6.345383   -3.279449    0.348974
  H      6.951581    1.701174    1.004043
  H      5.720769    2.727807    0.255189
  H      5.572605    2.275775    1.951522
  H     -5.336761    2.583623    1.141508
  H     -6.670287    1.958626    0.162414
  H     -6.533437    1.495086    1.857384
